22
scan: 0
  H    0.151000000  -1.723000000   0.425000000
  C   -0.424000000  -0.811000000   0.592000000
  H    0.000000000   0.000000000   0.000000000
  H   -0.387000000  -0.547000000   1.649000000
  C   -1.887000000  -1.000000000   0.187000000
  O   -2.276000000  -2.077000000  -0.262000000
  N   -2.692000000   0.052000000   0.347000000
  H   -2.326000000   0.916000000   0.719000000
  C   -4.098000000  -0.000000000  -0.000000000
  H   -4.204000000  -0.228000000  -1.061000000
  C   -4.822000000  -1.075000000   0.804000000
  H   -4.734000000  -0.855000000   1.867000000
  H   -5.875000000  -1.091000000   0.523000000
  H   -4.377000000  -2.047000000   0.595000000
  C   -4.782000000   1.330000000   0.281000000
  O   -4.144000000   2.274000000   0.743000000
  N   -6.085000000   1.405000000   0.000000000
  H   -6.566000000   0.601000000  -0.379000000
  C   -6.848000000   2.616000000   0.222000000
  H   -6.196000000   3.387000000   0.631000000
  H   -7.269000000   2.959000000  -0.723000000
  H   -7.656000000   2.413000000   0.926000000
22
scan: 20
  H    0.151000000  -1.723000000   0.425000000
  C   -0.424000000  -0.811000000   0.592000000
  H    0.000000000   0.000000000   0.000000000
  H   -0.387000000  -0.547000000   1.649000000
  C   -1.887000000  -1.000000000   0.187000000
  O   -2.276000000  -2.077000000  -0.262000000
  N   -2.692000000   0.052000000   0.347000000
  H   -2.326000000   0.916000000   0.719000000
  C   -4.098000000   0.000000000  -0.000000000
  H   -4.204000000   0.148633455  -1.074994463
  C   -4.822000000  -1.285153763   0.387841213
  H   -4.734000000  -1.441988798   1.461978900
  H   -5.875000000  -1.204081184   0.118315264
  H   -4.377000000  -2.127052780  -0.140998124
  C   -4.782000000   1.153683525   0.718940417
  O   -4.144000000   1.882740053   1.475945423
  N   -6.085000000   1.320268132   0.480538301
  H   -6.566000000   0.694380899  -0.150589397
  C   -6.848000000   2.382307424   1.103336457
  H   -6.196000000   2.966924196   1.751368269
  H   -7.269000000   3.027831029   0.332639839
  H   -7.656000000   1.950767641   1.695449973
22
scan: 40
  H    0.151000000  -1.723000000   0.425000000
  C   -0.424000000  -0.811000000   0.592000000
  H    0.000000000   0.000000000   0.000000000
  H   -0.387000000  -0.547000000   1.649000000
  C   -1.887000000  -1.000000000   0.187000000
  O   -2.276000000  -2.077000000  -0.262000000
  N   -2.692000000   0.052000000   0.347000000
  H   -2.326000000   0.916000000   0.719000000
  C   -4.098000000   0.000000000  -0.000000000
  H   -4.204000000   0.507339521  -0.959328729
  C   -4.822000000  -1.340299015  -0.075096948
  H   -4.734000000  -1.855052466   0.880621569
  H   -5.875000000  -1.171932407  -0.300640038
  H   -4.377000000  -1.950551603  -0.859989793
  C   -4.782000000   0.838215791   1.070166009
  O   -4.144000000   1.264393870   2.030870046
  N   -6.085000000   1.076292443   0.903116592
  H   -6.566000000   0.704009214   0.095984509
  C   -6.848000000   1.861273414   1.851594253
  H   -6.196000000   2.188993547   2.660495678
  H   -7.269000000   2.731460949   1.348158405
  H   -7.656000000   1.253243915   2.260403657
22
scan: 60
  H    0.151000000  -1.723000000   0.425000000
  C   -0.424000000  -0.811000000   0.592000000
  H    0.000000000   0.000000000   0.000000000
  H   -0.387000000  -0.547000000   1.649000000
  C   -1.887000000  -1.000000000   0.187000000
  O   -2.276000000  -2.077000000  -0.262000000
  N   -2.692000000   0.052000000   0.347000000
  H   -2.326000000   0.916000000   0.719000000
  C   -4.098000000   0.000000000  -0.000000000
  H   -4.204000000   0.804852953  -0.727953792
  C   -4.822000000  -1.233784425  -0.528977309
  H   -4.734000000  -2.044369429   0.193048280
  H   -5.875000000  -0.998431286  -0.683333716
  H   -4.377000000  -1.538785115  -1.475254002
  C   -4.782000000   0.421646862   1.292313787
  O   -4.144000000   0.493543125   2.340841768
  N   -6.085000000   0.702500000   1.216765692
  H   -6.566000000   0.628723628   0.330981268
  C   -6.848000000   1.115742360   2.376522456
  H   -6.196000000   1.147037970   3.248728043
  H   -7.269000000   2.105636367   2.201069170
  H   -7.656000000   0.404560476   2.552719299
22
scan: 80
  H    0.151000000  -1.723000000   0.425000000
  C   -0.424000000  -0.811000000   0.592000000
  H    0.000000000   0.000000000   0.000000000
  H   -0.387000000  -0.547000000   1.649000000
  C   -1.887000000  -1.000000000   0.187000000
  O   -2.276000000  -2.077000000  -0.262000000
  N   -2.692000000   0.052000000   0.347000000
  H   -2.326000000   0.916000000   0.719000000
  C   -4.098000000   0.000000000  -0.000000000
  H   -4.204000000   1.005289241  -0.408776884
  C   -4.822000000  -0.978457224  -0.919055200
  H   -4.734000000  -1.987105267  -0.517809481
  H   -5.875000000  -0.704504617  -0.983607262
  H   -4.377000000  -0.941418433  -1.912580805
  C   -4.782000000  -0.045778902   1.358589449
  O   -4.144000000  -0.336836204   2.368473426
  N   -6.085000000   0.243975690   1.383654893
  H   -6.566000000   0.477604693   0.526056800
  C   -6.848000000   0.235636312   2.614806977
  H   -6.196000000  -0.033267314   3.445115860
  H   -7.269000000   1.225840963   2.788498509
  H   -7.656000000  -0.492918927   2.537139321
22
scan: 100
  H    0.151000000  -1.723000000   0.425000000
  C   -0.424000000  -0.811000000   0.592000000
  H    0.000000000   0.000000000   0.000000000
  H   -0.387000000  -0.547000000   1.649000000
  C   -1.887000000  -1.000000000   0.187000000
  O   -2.276000000  -2.077000000  -0.262000000
  N   -2.692000000   0.052000000   0.347000000
  H   -2.326000000   0.916000000   0.719000000
  C   -4.098000000   0.000000000   0.000000000
  H   -4.204000000   1.084472810  -0.040295451
  C   -4.822000000  -0.605113642  -1.198281469
  H   -4.734000000  -1.690166883  -1.166211777
  H   -5.875000000  -0.325604293  -1.165243255
  H   -4.377000000  -0.230502793  -2.119222136
  C   -4.782000000  -0.507683055   1.260999174
  O   -4.144000000  -1.126588117   2.110432234
  N   -6.085000000  -0.243975690   1.383654893
  H   -6.566000000   0.268879584   0.657682119
  C   -6.848000000  -0.672890954   2.537707186
  H   -6.196000000  -1.209560070   3.225971859
  H   -7.269000000   0.198191048   3.039593774
  H   -7.656000000  -1.330945032   2.215542895
22
scan: 120
  H    0.151000000  -1.723000000   0.425000000
  C   -0.424000000  -0.811000000   0.592000000
  H    0.000000000   0.000000000   0.000000000
  H   -0.387000000  -0.547000000   1.649000000
  C   -1.887000000  -1.000000000   0.187000000
  O   -2.276000000  -2.077000000  -0.262000000
  N   -2.692000000   0.052000000   0.347000000
  H   -2.326000000   0.916000000   0.719000000
  C   -4.098000000   0.000000000   0.000000000
  H   -4.204000000   1.032852953   0.333046208
  C   -4.822000000  -0.158784425  -1.332977309
  H   -4.734000000  -1.189369429  -1.673951720
  H   -5.875000000   0.092568714  -1.206333716
  H   -4.377000000   0.508214885  -2.070254002
  C   -4.782000000  -0.908353138   1.011313787
  O   -4.144000000  -1.780456875   1.597841768
  N   -6.085000000  -0.702500000   1.216765692
  H   -6.566000000   0.027723628   0.709981268
  C   -6.848000000  -1.500257640   2.154522456
  H   -6.196000000  -2.239962030   2.617728043
  H   -7.269000000  -0.853363633   2.924069170
  H   -7.656000000  -2.008439524   1.626719299
22
scan: 140
  H    0.151000000  -1.723000000   0.425000000
  C   -0.424000000  -0.811000000   0.592000000
  H    0.000000000   0.000000000   0.000000000
  H   -0.387000000  -0.547000000   1.649000000
  C   -1.887000000  -1.000000000   0.187000000
  O   -2.276000000  -2.077000000  -0.262000000
  N   -2.692000000   0.052000000   0.347000000
  H   -2.326000000   0.916000000   0.719000000
  C   -4.098000000   0.000000000   0.000000000
  H   -4.204000000   0.856655787   0.666217579
  C   -4.822000000   0.306696538  -1.306896413
  H   -4.734000000  -0.545116468  -1.979788382
  H   -5.875000000   0.499576568  -1.101922526
  H   -4.377000000   1.185634347  -1.771582681
  C   -4.782000000  -1.199462428   0.639649032
  O   -4.144000000  -2.219576258   0.892528003
  N   -6.085000000  -1.076292443   0.903116592
  H   -6.566000000  -0.216776206   0.676646197
  C   -6.848000000  -2.146671113   1.511470521
  H   -6.196000000  -3.000191511   1.693747590
  H   -7.269000000  -1.801990065   2.455858669
  H   -7.656000000  -2.443686568   0.841689348
22
scan: 160
  H    0.151000000  -1.723000000   0.425000000
  C   -0.424000000  -0.811000000   0.592000000
  H    0.000000000   0.000000000   0.000000000
  H   -0.387000000  -0.547000000   1.649000000
  C   -1.887000000  -1.000000000   0.187000000
  O   -2.276000000  -2.077000000  -0.262000000
  N   -2.692000000   0.052000000   0.347000000
  H   -2.326000000   0.916000000   0.719000000
  C   -4.098000000   0.000000000   0.000000000
  H   -4.204000000   0.577133290   0.919033278
  C   -4.822000000   0.735185372  -1.123184521
  H   -4.734000000   0.164885583  -2.046833346
  H   -5.875000000   0.846328114  -0.864603217
  H   -4.377000000   1.720048809  -1.259232343
  C   -4.782000000  -1.345898846   0.190833164
  O   -4.144000000  -2.390981986   0.079562189
  N   -6.085000000  -1.320268132   0.480538301
  H   -6.566000000  -0.435129631   0.561697609
  C   -6.848000000  -2.534164368   0.686112933
  H   -6.196000000  -3.398553617   0.565476182
  H   -7.269000000  -2.533269901   1.691435369
  H   -7.656000000  -2.584188947  -0.044860761
22
scan: 180
  H    0.151000000  -1.723000000   0.425000000
  C   -0.424000000  -0.811000000   0.592000000
  H    0.000000000   0.000000000   0.000000000
  H   -0.387000000  -0.547000000   1.649000000
  C   -1.887000000  -1.000000000   0.187000000
  O   -2.276000000  -2.077000000  -0.262000000
  N   -2.692000000   0.052000000   0.347000000
  H   -2.326000000   0.916000000   0.719000000
  C   -4.098000000   0.000000000   0.000000000
  H   -4.204000000   0.228000000   1.061000000
  C   -4.822000000   1.075000000  -0.804000000
  H   -4.734000000   0.855000000  -1.867000000
  H   -5.875000000   1.091000000  -0.523000000
  H   -4.377000000   2.047000000  -0.595000000
  C   -4.782000000  -1.330000000  -0.281000000
  O   -4.144000000  -2.274000000  -0.743000000
  N   -6.085000000  -1.405000000   0.000000000
  H   -6.566000000  -0.601000000   0.379000000
  C   -6.848000000  -2.616000000  -0.222000000
  H   -6.196000000  -3.387000000  -0.631000000
  H   -7.269000000  -2.959000000   0.723000000
  H   -7.656000000  -2.413000000  -0.926000000
22
scan: 200
  H    0.151000000  -1.723000000   0.425000000
  C   -0.424000000  -0.811000000   0.592000000
  H    0.000000000   0.000000000   0.000000000
  H   -0.387000000  -0.547000000   1.649000000
  C   -1.887000000  -1.000000000   0.187000000
  O   -2.276000000  -2.077000000  -0.262000000
  N   -2.692000000   0.052000000   0.347000000
  H   -2.326000000   0.916000000   0.719000000
  C   -4.098000000   0.000000000   0.000000000
  H   -4.204000000  -0.148633455   1.074994463
  C   -4.822000000   1.285153763  -0.387841213
  H   -4.734000000   1.441988798  -1.461978900
  H   -5.875000000   1.204081184  -0.118315264
  H   -4.377000000   2.127052780   0.140998124
  C   -4.782000000  -1.153683525  -0.718940417
  O   -4.144000000  -1.882740053  -1.475945423
  N   -6.085000000  -1.320268132  -0.480538301
  H   -6.566000000  -0.694380899   0.150589397
  C   -6.848000000  -2.382307424  -1.103336457
  H   -6.196000000  -2.966924196  -1.751368269
  H   -7.269000000  -3.027831029  -0.332639839
  H   -7.656000000  -1.950767641  -1.695449973
22
scan: 220
  H    0.151000000  -1.723000000   0.425000000
  C   -0.424000000  -0.811000000   0.592000000
  H    0.000000000   0.000000000   0.000000000
  H   -0.387000000  -0.547000000   1.649000000
  C   -1.887000000  -1.000000000   0.187000000
  O   -2.276000000  -2.077000000  -0.262000000
  N   -2.692000000   0.052000000   0.347000000
  H   -2.326000000   0.916000000   0.719000000
  C   -4.098000000   0.000000000   0.000000000
  H   -4.204000000  -0.507339521   0.959328729
  C   -4.822000000   1.340299015   0.075096948
  H   -4.734000000   1.855052466  -0.880621569
  H   -5.875000000   1.171932407   0.300640038
  H   -4.377000000   1.950551603   0.859989793
  C   -4.782000000  -0.838215791  -1.070166009
  O   -4.144000000  -1.264393870  -2.030870046
  N   -6.085000000  -1.076292443  -0.903116592
  H   -6.566000000  -0.704009214  -0.095984509
  C   -6.848000000  -1.861273414  -1.851594253
  H   -6.196000000  -2.188993547  -2.660495678
  H   -7.269000000  -2.731460949  -1.348158405
  H   -7.656000000  -1.253243915  -2.260403657
22
scan: 240
  H    0.151000000  -1.723000000   0.425000000
  C   -0.424000000  -0.811000000   0.592000000
  H    0.000000000   0.000000000   0.000000000
  H   -0.387000000  -0.547000000   1.649000000
  C   -1.887000000  -1.000000000   0.187000000
  O   -2.276000000  -2.077000000  -0.262000000
  N   -2.692000000   0.052000000   0.347000000
  H   -2.326000000   0.916000000   0.719000000
  C   -4.098000000   0.000000000   0.000000000
  H   -4.204000000  -0.804852953   0.727953792
  C   -4.822000000   1.233784425   0.528977309
  H   -4.734000000   2.044369429  -0.193048280
  H   -5.875000000   0.998431286   0.683333716
  H   -4.377000000   1.538785115   1.475254002
  C   -4.782000000  -0.421646862  -1.292313787
  O   -4.144000000  -0.493543125  -2.340841768
  N   -6.085000000  -0.702500000  -1.216765692
  H   -6.566000000  -0.628723628  -0.330981268
  C   -6.848000000  -1.115742360  -2.376522456
  H   -6.196000000  -1.147037970  -3.248728043
  H   -7.269000000  -2.105636367  -2.201069170
  H   -7.656000000  -0.404560476  -2.552719299
22
scan: 260
  H    0.151000000  -1.723000000   0.425000000
  C   -0.424000000  -0.811000000   0.592000000
  H    0.000000000   0.000000000   0.000000000
  H   -0.387000000  -0.547000000   1.649000000
  C   -1.887000000  -1.000000000   0.187000000
  O   -2.276000000  -2.077000000  -0.262000000
  N   -2.692000000   0.052000000   0.347000000
  H   -2.326000000   0.916000000   0.719000000
  C   -4.098000000   0.000000000   0.000000000
  H   -4.204000000  -1.005289241   0.408776884
  C   -4.822000000   0.978457224   0.919055200
  H   -4.734000000   1.987105267   0.517809481
  H   -5.875000000   0.704504617   0.983607262
  H   -4.377000000   0.941418433   1.912580805
  C   -4.782000000   0.045778902  -1.358589449
  O   -4.144000000   0.336836204  -2.368473426
  N   -6.085000000  -0.243975690  -1.383654893
  H   -6.566000000  -0.477604693  -0.526056800
  C   -6.848000000  -0.235636312  -2.614806977
  H   -6.196000000   0.033267314  -3.445115860
  H   -7.269000000  -1.225840963  -2.788498509
  H   -7.656000000   0.492918927  -2.537139321
22
scan: 280
  H    0.151000000  -1.723000000   0.425000000
  C   -0.424000000  -0.811000000   0.592000000
  H    0.000000000   0.000000000   0.000000000
  H   -0.387000000  -0.547000000   1.649000000
  C   -1.887000000  -1.000000000   0.187000000
  O   -2.276000000  -2.077000000  -0.262000000
  N   -2.692000000   0.052000000   0.347000000
  H   -2.326000000   0.916000000   0.719000000
  C   -4.098000000  -0.000000000   0.000000000
  H   -4.204000000  -1.084472810   0.040295451
  C   -4.822000000   0.605113642   1.198281469
  H   -4.734000000   1.690166883   1.166211777
  H   -5.875000000   0.325604293   1.165243255
  H   -4.377000000   0.230502793   2.119222136
  C   -4.782000000   0.507683055  -1.260999174
  O   -4.144000000   1.126588117  -2.110432234
  N   -6.085000000   0.243975690  -1.383654893
  H   -6.566000000  -0.268879584  -0.657682119
  C   -6.848000000   0.672890954  -2.537707186
  H   -6.196000000   1.209560070  -3.225971859
  H   -7.269000000  -0.198191048  -3.039593774
  H   -7.656000000   1.330945032  -2.215542895
22
scan: 300
  H    0.151000000  -1.723000000   0.425000000
  C   -0.424000000  -0.811000000   0.592000000
  H    0.000000000   0.000000000   0.000000000
  H   -0.387000000  -0.547000000   1.649000000
  C   -1.887000000  -1.000000000   0.187000000
  O   -2.276000000  -2.077000000  -0.262000000
  N   -2.692000000   0.052000000   0.347000000
  H   -2.326000000   0.916000000   0.719000000
  C   -4.098000000  -0.000000000   0.000000000
  H   -4.204000000  -1.032852953  -0.333046208
  C   -4.822000000   0.158784425   1.332977309
  H   -4.734000000   1.189369429   1.673951720
  H   -5.875000000  -0.092568714   1.206333716
  H   -4.377000000  -0.508214885   2.070254002
  C   -4.782000000   0.908353138  -1.011313787
  O   -4.144000000   1.780456875  -1.597841768
  N   -6.085000000   0.702500000  -1.216765692
  H   -6.566000000  -0.027723628  -0.709981268
  C   -6.848000000   1.500257640  -2.154522456
  H   -6.196000000   2.239962030  -2.617728043
  H   -7.269000000   0.853363633  -2.924069170
  H   -7.656000000   2.008439524  -1.626719299
22
scan: 320
  H    0.151000000  -1.723000000   0.425000000
  C   -0.424000000  -0.811000000   0.592000000
  H    0.000000000   0.000000000   0.000000000
  H   -0.387000000  -0.547000000   1.649000000
  C   -1.887000000  -1.000000000   0.187000000
  O   -2.276000000  -2.077000000  -0.262000000
  N   -2.692000000   0.052000000   0.347000000
  H   -2.326000000   0.916000000   0.719000000
  C   -4.098000000  -0.000000000   0.000000000
  H   -4.204000000  -0.856655787  -0.666217579
  C   -4.822000000  -0.306696538   1.306896413
  H   -4.734000000   0.545116468   1.979788382
  H   -5.875000000  -0.499576568   1.101922526
  H   -4.377000000  -1.185634347   1.771582681
  C   -4.782000000   1.199462428  -0.639649032
  O   -4.144000000   2.219576258  -0.892528003
  N   -6.085000000   1.076292443  -0.903116592
  H   -6.566000000   0.216776206  -0.676646197
  C   -6.848000000   2.146671113  -1.511470521
  H   -6.196000000   3.000191511  -1.693747590
  H   -7.269000000   1.801990065  -2.455858669
  H   -7.656000000   2.443686568  -0.841689348
22
scan: 340
  H    0.151000000  -1.723000000   0.425000000
  C   -0.424000000  -0.811000000   0.592000000
  H    0.000000000   0.000000000   0.000000000
  H   -0.387000000  -0.547000000   1.649000000
  C   -1.887000000  -1.000000000   0.187000000
  O   -2.276000000  -2.077000000  -0.262000000
  N   -2.692000000   0.052000000   0.347000000
  H   -2.326000000   0.916000000   0.719000000
  C   -4.098000000  -0.000000000   0.000000000
  H   -4.204000000  -0.577133290  -0.919033278
  C   -4.822000000  -0.735185372   1.123184521
  H   -4.734000000  -0.164885583   2.046833346
  H   -5.875000000  -0.846328114   0.864603217
  H   -4.377000000  -1.720048809   1.259232343
  C   -4.782000000   1.345898846  -0.190833164
  O   -4.144000000   2.390981986  -0.079562189
  N   -6.085000000   1.320268132  -0.480538301
  H   -6.566000000   0.435129631  -0.561697609
  C   -6.848000000   2.534164368  -0.686112933
  H   -6.196000000   3.398553617  -0.565476182
  H   -7.269000000   2.533269901  -1.691435369
  H   -7.656000000   2.584188947   0.044860761
