14

  H    1.819147527   0.726727145   0.634963372
  H    2.453525131   0.182845798  -0.694558136
  H    1.261460673   1.195931819  -0.765671441
  H    1.065302360  -1.619891270   0.041417322
  H   -1.206558840  -1.394231697   0.603073304
  H    0.367465202  -1.062454556  -1.208126750
  H   -0.439016486  -0.440594823   1.532110967
  H   -1.810670788   0.524818475  -0.893199632
  H   -2.385392790   0.708114486   0.555569508
  H   -1.109450563   1.507280262   0.124746996
  C    1.570300000   0.383700000  -0.270800000
  C    0.600300000  -0.792600000  -0.273800000
  C   -0.664000000  -0.555100000   0.564500000
  C   -1.522800000   0.598900000   0.061600000
