6
Cycle: 0 E: 7.286761285493363 kcal/mol
  O   -0.185315093   0.443398227   1.166870637
  H   -0.632815125  -0.317544486   0.651302254
  H   -0.141452933   0.381853700   2.095529508
  O   -0.177060975   0.198736159   3.883812027
  H    0.552865524  -0.107939696   4.294869030
  H   -0.759626638   0.747889003   4.461815406
6
Cycle: 1 E: -4.81145321706597 kcal/mol
  O   -0.188868228   0.442483240   1.102967000
  H   -0.635184183  -0.308969397   0.588356510
  H   -0.163473798   0.367921787   2.097317684
  O   -0.189239600   0.194125777   3.902089339
  H    0.602291296  -0.118004078   4.374534198
  H   -0.768930727   0.768835579   4.488934132
6
Cycle: 2 E: -6.364896884164933 kcal/mol
  O   -0.188189511   0.445307374   1.082546196
  H   -0.642899613  -0.306111169   0.583439562
  H   -0.165896040   0.366487410   2.105766716
  O   -0.189576202   0.194409795   3.902373710
  H    0.631289360  -0.130966595   4.402022339
  H   -0.788133234   0.777266092   4.478050338
6
Cycle: 3 E: -6.471095410923549 kcal/mol
  O   -0.186113321   0.447995534   1.085199359
  H   -0.647206649  -0.305678113   0.595869069
  H   -0.162762539   0.367459509   2.109168692
  O   -0.188617399   0.191367703   3.893016656
  H    0.630318466  -0.129167931   4.403360760
  H   -0.789023798   0.774416205   4.467584326
6
Cycle: 4 E: -6.816654555514907 kcal/mol
  O   -0.173274470   0.464142544   1.111851330
  H   -0.670948812  -0.304032009   0.685992169
  H   -0.142240501   0.375307151   2.137322697
  O   -0.177415655   0.180217863   3.838961920
  H    0.626092055  -0.127617777   4.389203521
  H   -0.805617857   0.758375134   4.390867225
6
Cycle: 5 E: -6.845334345391022 kcal/mol
  O   -0.171677531   0.466585230   1.117324053
  H   -0.670361256  -0.304846718   0.697790872
  H   -0.142270311   0.375501543   2.143049584
  O   -0.176923300   0.179586061   3.833305068
  H    0.624017557  -0.128104118   4.380186809
  H   -0.806190399   0.757670909   4.382542476
6
Cycle: 6 E: -6.8505772633327044 kcal/mol
  O   -0.171919353   0.467333306   1.118736595
  H   -0.665859461  -0.306481273   0.697470134
  H   -0.145606927   0.374811028   2.145174721
  O   -0.179056704   0.180269158   3.834339220
  H    0.623471069  -0.129463632   4.373147675
  H   -0.804433865   0.759924319   4.385330517
6
Cycle: 7 E: -6.850970006920271 kcal/mol
  O   -0.172370532   0.467718401   1.119068691
  H   -0.663351191  -0.307485928   0.696871176
  H   -0.147202329   0.374694781   2.145666685
  O   -0.180706341   0.180394169   3.834532094
  H    0.623335946  -0.130134519   4.370441898
  H   -0.803110793   0.761206005   4.387618319
