9

  O  -635259468.185018063 134316272.381258011 -386451501.567287445
  H  1481828090.356897831 746347185.634769440 263308165.519646645
  H  839394040.920715332 376271353.999551773 1626378382.373456955
  O  -8718084000.525547028 4180417598.434738159 3503702847.750455856
  H  -4840322537.739487648 10137579830.622472763 -1702120073.816242218
  H  -8380016001.093971252 1969435348.853614807 5557600316.317747116
  O   -0.002242088   0.021748066  -2.688650131
  H   -0.085096836   0.077816963  -1.706600189
  H   -0.801156044   0.454509735  -3.074409962
